  Page 1                                    Sun Oct 30 17:22:44 2022

  ******************************************************************
  *                           E P A N E T                          *
  *                   Hydraulic and Water Quality                  *
  *                   Analysis for Pipe Networks                   *
  *                         Version 2.2                            *
  ******************************************************************
  
   
      Input Data File ................... local_data\TS network.inp
      Number of Junctions................ 60
      Number of Reservoirs............... 13
      Number of Tanks ................... 0
      Number of Pipes ................... 72
      Number of Pumps ................... 0
      Number of Valves .................. 2
      Headloss Formula .................. Darcy-Weisbach
      Nodal Demand Model ................ DDA
      Hydraulic Timestep ................ 15.00 min
      Hydraulic Accuracy ................ 0.001000
      Status Check Frequency ............ 2
      Maximum Trials Checked ............ 10
      Damping Limit Threshold ........... 0.000000
      Maximum Trials .................... 200
      Quality Analysis .................. None
      Specific Gravity .................. 1.00
      Relative Kinematic Viscosity ...... 1.00
      Relative Chemical Diffusivity ..... 1.00
      Demand Multiplier ................. 1.00
      Total Duration .................... 10080.00 min
      Reporting Criteria:
         No Nodes
         No Links
   
  Analysis begun Sun Oct 30 17:22:44 2022

  Analysis ended Sun Oct 30 17:22:44 2022
